&share
 wrf_core = 'ARW',
 max_dom = 2,
 start_date = '2011-07-04_00:00:00','2011-07-04_00:00:00'
 end_date   = '2011-07-05_00:00:00','2011-07-05_00:00:00'
 interval_seconds = 21600,
 io_form_geogrid = 2,
 debug_level = 0,
/

&geogrid
 parent_id         =   1,   1, 
 parent_grid_ratio =   1,   3,
 i_parent_start    =   1,  150,
 j_parent_start    =   1,   70,
 e_we              =  300, 211,
 e_sn              =  300, 211,
 geog_data_res = 'modis_fpar+30s', 'modis_fpar+30s', 'modis_fpar+30s'
 dx        = 9000, 
 dy        = 9000, 
 map_proj  = 'lambert',
 ref_lat   =   37.0
 ref_lon   =  -115.0,
 truelat1  =  35.0,
 truelat2  =  40.0,
 stand_lon =  -115.0,
 geog_data_path = '/discover/nobackup/projects/nu-wrf/cases/geog'
/

&metgrid
fg_name = 'MERRA','TERRA_X05Y04','TERRA_X06Y04','TERRA_X06Y05','TERRA_X06Y06','TERRA_X07Y04','TERRA_X07Y05','TERRA_X07Y06','TERRA_X07Y07','TERRA_X08Y04','TERRA_X08Y05','TERRA_X08Y06','TERRA_X08Y07','TERRA_X09Y04','TERRA_X09Y05','TERRA_X09Y06','TERRA_X09Y07'
 io_form_metgrid = 2, 
/

&mod_levs
 press_pa = 201300 , 200100 , 100000 , 
             95000 ,  90000 , 
             85000 ,  80000 , 
             75000 ,  70000 , 
             65000 ,  60000 , 
             55000 ,  50000 , 
             45000 ,  40000 , 
             35000 ,  30000 , 
             25000 ,  20000 , 
             15000 ,  10000 , 
              5000 ,   1000
/
