&share
 wrf_core = 'ARW',
 max_dom = 2,
 start_date = '2009-04-10_12:00:00','2009-04-10_12:00:00',
 end_date   = '2009-04-11_12:00:00','2009-04-11_12:00:00',
 interval_seconds = 10800
 io_form_geogrid = 2,
/

&geogrid
 parent_id         =   1,   1,
 parent_grid_ratio =   1,   3,
 i_parent_start    =   1,  50,
 j_parent_start    =   1,  55,
 e_we              = 150, 151,
 e_sn              = 150, 151,
 geog_data_res     = 'modis_lakes+30s','modis_lakes+30s','modis_lakes+30s',
 dx = 12000, 
 dy = 12000,
 map_proj = 'lambert',
 ref_lat   =  33.0,
 ref_lon   = -85.0,
 truelat1  =  30.0,
 truelat2  =  60.0,
 stand_lon = -85.0,
 geog_data_path = '/discover/nobackup/projects/nu-wrf/cases/geog'
/

&ungrib
 out_format = 'WPS',
 prefix = 'NAM',
/

&metgrid
 fg_name = 'NAM'
 io_form_metgrid = 2,
/

&mod_levs
 press_pa = 201300 , 200100 , 100000 , 
             97500 ,  95000 ,  92500 ,  90000 ,
             87500 ,  85000 ,  82500 ,  80000 , 
             77500 ,  75000 ,  72500 ,  70000 , 
             67500 ,  65000 ,  62500 ,  60000 , 
             57500 ,  55000 ,  52500 ,  50000 , 
             47500 ,  45000 ,  42500 ,  40000 , 
             37500 ,  35000 ,  32500 ,  30000 , 
             27500 ,  25000 ,  22500 ,  20000 , 
             17500 ,  15000 ,  12500 ,  10000 , 
              7500 ,   5000
/
