&share
 wrf_core = 'ARW',
 max_dom = 1,
 start_date = '2012-02-28_00:00:00'
 end_date   = '2012-03-02_00:00:00',
 interval_seconds = 21600,
 io_form_geogrid = 2,
/

&geogrid
 parent_id         =   1,   1,
 parent_grid_ratio =   1,   3,
 i_parent_start    =   1,  31,
 j_parent_start    =   1,  17,
 e_we              =  360, 112,
 e_sn              =  180,  97,
 geog_data_res     = 'modis_lakes+30s','2m',
 dx = 20000,
 dy = 20000,
 map_proj = 'lambert',
 ref_lat   =   30.0
 ref_lon   =   30.0,
 truelat1  =  25.0,
 truelat2  =  35.0,
 stand_lon =  30.0,
 geog_data_path = '/discover/nobackup/projects/nu-wrf/cases/geog',
/

&ungrib
 out_format = 'WPS',
 prefix = 'FNL',
/

&metgrid
 fg_name = 'FNL'
 io_form_metgrid = 2, 
/
