&share
 wrf_core = 'ARW',
 max_dom = 1,
 start_date = '2011-07-04_00:00:00'
 end_date   = '2011-07-05_00:00:00',
 interval_seconds = 21600,
 io_form_geogrid = 2,
/

&geogrid
 parent_id         =   1,   1,
 parent_grid_ratio =   1,   3,
 i_parent_start    =   1,  31,
 j_parent_start    =   1,  17,
 e_we              =  300, 112,
 e_sn              =  300,  97,
 geog_data_res     = 'gvfsport+modis_lakes+30s','2m',
 dx = 10000,
 dy = 10000,
 map_proj = 'lambert',
 ref_lat   =   37.0
 ref_lon   =  -115.0,
 truelat1  =  35.0,
 truelat2  =  40.0,
 stand_lon =  -115.0,
 geog_data_path = '/discover/nobackup/projects/nu-wrf/cases/geog',
/

&ungrib
 out_format = 'WPS',
 prefix = 'FNL',
/

&metgrid
 fg_name = 'FNL','BARE_DYN',
 io_form_metgrid = 2, 
/
