&share
 wrf_core = 'ARW',
 max_dom = 2,
 start_date = '2010-03-20_00:00:00','2010-03-20_00:00:00',
 end_date   = '2010-04-01_00:00:00','2010-04-01_00:00:00',
 interval_seconds = 21600,
 io_form_geogrid = 2,
/

&geogrid
 parent_id         =   1,   1,
 parent_grid_ratio =   1,   3,
 i_parent_start    =   1,  66,
 j_parent_start    =   1,  60,
 e_we              =  199, 199,
 e_sn              =  181, 181,
 geog_data_res     = '2m','2m',
 dx = 27000,
 dy = 27000,
 map_proj = 'lambert',
 ref_lat   =  43.,
 ref_lon   = -98.,
 truelat1  =  37.,
 truelat2  =  49.,
 stand_lon = -98.,
 geog_data_path = '/discover/nobackup/projects/nu-wrf/cases/geog',
/

&ungrib
 out_format = 'WPS',
 prefix = 'FNL',
/

&metgrid
 fg_name = 'FNL',
 io_form_metgrid = 2, 
/
