&share
 wrf_core = 'ARW',
 max_dom = 1,
 start_date = '2008-01-01_00:00:00',
 end_date   = '2008-01-02_00:00:00',
 interval_seconds = 10800
 io_form_geogrid = 2,
/

&geogrid
 parent_id         =   1,   1,   1,
 parent_grid_ratio =   1,   3,   3,
 i_parent_start    =   1, 17,    1,
 j_parent_start    =   1, 16,   1,
 e_we              =  150, 142,  142,
 e_sn              =  120, 127,  127,
 geog_data_res     = 'modis_lakes+30s','2m','2m',
 dx = 18000,
 dy = 18000,
 map_proj = 'lambert',
 ref_lat   =  37.0,
 ref_lon   =  -86.00,
 truelat1  =  37.0,
 truelat2  =  37.0,
 stand_lon =  -86.0,
 geog_data_path = '/discover/nobackup/projects/nu-wrf/cases/geog'
/

&ungrib
 out_format = 'WPS',
 prefix = 'GFS',
/

&metgrid
 fg_name = 'GFS'
 io_form_metgrid = 2, 
/
